-------------------------------------------------------
          Amber 18 PMEMD                              2018
          -------------------------------------------------------

  [-O]verwriting output

File Assignments:

 Here is the input file:

MD: final.1.in
 &cntrl
   imin = 0, nstlim = 2485000, dt = 0.002,
   ntx = 5, irest = 1, ig = -1,
   ntwx = 5000, ntwv = -1, ioutfm = 1, ntxo = 1, ntpr = 500, ntwr = 50000,
   iwrap = 0, nscm = 1000,
   ntc = 2, ntf = 2, ntb = 2, cut = 9.0,
   ntt = 3, gamma_ln = 5, temp0 = 300, tempi = 300,
   ntp = 1, barostat = 2, pres0 = 1.0,
   ntr = 0,
 &end

Note: ig = -1. Setting random seed to    91723 based on wallclock time in
      microseconds.

--------------------------------------------------------------------------------
   1.  RESOURCE   USE:
--------------------------------------------------------------------------------

 getting new box info from bottom of inpcrd
 NATOM  =   15691 NTYPES =      17 NBONH =   14747 MBONA  =     953
 NTHETH =    2337 MTHETA =    1282 NPHIH =    4475 MPHIA  =    3254
 NHPARM =       0 NPARM  =       0 NNB   =   29243 NRES   =    4688
 NBONA  =     953 NTHETA =    1282 NPHIA =    3254 NUMBND =      42
 NUMANG =      92 NPTRA  =      39 NATYP =      28 NPHB   =       1
 IFBOX  =       2 NMXRS  =      24 IFCAP =       0 NEXTRA =       0
 NCOPY  =       0

     BOX TYPE: TRUNCATED OCTAHEDRON

--------------------------------------------------------------------------------
   2.  CONTROL  DATA  FOR  THE  RUN
--------------------------------------------------------------------------------

default_name

General flags:
     imin    =       0, nmropt  =       0

Nature and format of input:
     ntx     =       5, irest   =       1, ntrx    =       1

Nature and format of output:
     ntxo    =       1, ntpr    =     500, ntrx    =       1, ntwr    =   50000
     iwrap   =       0, ntwx    =    5000, ntwv    =      -1, ntwe    =       0
     ioutfm  =       1, ntwprt  =       0, idecomp =       0, rbornstat=      0

Potential function:
     ntf     =       2, ntb     =       2, igb     =       0, nsnb    =      25
     ipol    =       0, gbsa    =       0, iesp    =       0
     dielc   =   1.00000, cut     =   9.00000, intdiel =   1.00000

Frozen or restrained atoms:
     ibelly  =       0, ntr     =       0

Molecular dynamics:
     nstlim  =   2485000, nscm    =      1000, nrespa  =         1
     t       =   0.00000, dt      =   0.00200, vlimit  =  -1.00000

Langevin dynamics temperature regulation:
     ig      =   91723
     temp0   = 300.00000, tempi   = 300.00000, gamma_ln=   5.00000

Pressure regulation:
     ntp     =       1
     pres0   =   1.00000, comp    =  44.60000, taup    =   1.00000
     Monte-Carlo Barostat:
     mcbarint  =     100

SHAKE:
     ntc     =       2, jfastw  =       0
     tol     =   0.00001

Ewald parameters:
     verbose =       0, ew_type =       0, nbflag  =       1, use_pme =       1
     vdwmeth =       1, eedmeth =       1, netfrc  =       1
     Box X =   58.703   Box Y =   58.703   Box Z =   58.703
     Alpha =  109.471   Beta  =  109.471   Gamma =  109.471
     NFFT1 =   64       NFFT2 =   64       NFFT3 =   64
     Cutoff=    9.000   Tol   =0.100E-04
     Ewald Coefficient =  0.30768
     Interpolation order =    4

--------------------------------------------------------------------------------
   3.  ATOMIC COORDINATES AND VELOCITIES
--------------------------------------------------------------------------------

default_name
 begin time read from input coords =    30.000 ps

 Number of triangulated 3-point waters found:     4568

     Sum of charges from parm topology file =  -0.00000006
     Forcing neutrality...

--------------------------------------------------------------------------------
   4.  RESULTS
 NSTEP =      500   TIME(PS) =      31.000  TEMP(K) =   303.13  PRESS =     0.0
 Etot   =    -37357.8902  EKtot   =      9736.2402  EPtot      =    -47094.1304
 BOND   =       360.8764  ANGLE   =      1036.6472  DIHED      =      1335.3468
 1-4 NB =       458.7643  1-4 EEL =      6241.7094  VDWAALS    =      5382.0152
 EELEC  =    -61909.4896  EHBOND  =         0.0000  RESTRAINT  =         0.0000
 EKCMT  =         0.0000  VIRIAL  =         0.0000  VOLUME     =    155726.8651
                                                    Density    =         1.0229
 ------------------------------------------------------------------------------

      A V E R A G E S   O V E R    4970 S T E P S

 NSTEP =  2485000   TIME(PS) =    5000.000  TEMP(K) =   300.00  PRESS =     0.0
 Etot   =    -37514.2932  EKtot   =      9635.6169  EPtot      =    -47149.9101
 BOND   =       352.3019  ANGLE   =      1061.1831  DIHED      =      1347.8685
 1-4 NB =       443.3279  1-4 EEL =      6283.4234  VDWAALS    =      5349.0355
 EELEC  =    -61987.0503  EHBOND  =         0.0000  RESTRAINT  =         0.0000
 EKCMT  =         0.0000  VIRIAL  =         0.0000  VOLUME     =    155315.0493
                                                    Density    =         1.0256
 ------------------------------------------------------------------------------

      R M S  F L U C T U A T I O N S

 NSTEP =  2485000   TIME(PS) =    5000.000  TEMP(K) =     2.36  PRESS =     0.0
 Etot   =       133.0731  EKtot   =        75.9134  EPtot      =       109.2835
 BOND   =        15.7734  ANGLE   =        24.4581  DIHED      =        14.0289
 1-4 NB =         9.0778  1-4 EEL =        40.3636  VDWAALS    =       107.1568
 EELEC  =       173.6820  EHBOND  =         0.0000  RESTRAINT  =         0.0000
 EKCMT  =         0.0000  VIRIAL  =         0.0000  VOLUME     =       578.1392
                                                    Density    =         0.0038
 ------------------------------------------------------------------------------
