-------------------------------------------------------
          Amber 18 PMEMD                              2018
          -------------------------------------------------------

  [-O]verwriting output

File Assignments:

 Here is the input file:

MD: step2.in
 &cntrl
   imin = 0, nstlim = 15000, dt = 0.001,
   ntx = 1, irest = 0, ig = -1,
   ntwx = 500, ntwv = 0, ioutfm = 0, ntxo = 1, ntpr = 50, ntwr = 500,
   iwrap = 0, nscm = 0,
   ntc = 2, ntf = 2, ntb = 1, cut = 8.0,
   ntt = 3, gamma_ln = 5, temp0 = 300, tempi = 300,
   ntr = 1, restraintmask = ":1-119&!@H=|:120", restraint_wt = 5.0,
 &end

Note: ig = -1. Setting random seed to   390439 based on wallclock time in
      microseconds.

--------------------------------------------------------------------------------
   1.  RESOURCE   USE:
--------------------------------------------------------------------------------

 getting new box info from bottom of inpcrd
 NATOM  =   15691 NTYPES =      17 NBONH =   14747 MBONA  =     953
 NTHETH =    2337 MTHETA =    1282 NPHIH =    4475 MPHIA  =    3254
 NHPARM =       0 NPARM  =       0 NNB   =   29243 NRES   =    4688
 NBONA  =     953 NTHETA =    1282 NPHIA =    3254 NUMBND =      42
 NUMANG =      92 NPTRA  =      39 NATYP =      28 NPHB   =       1
 IFBOX  =       2 NMXRS  =      24 IFCAP =       0 NEXTRA =       0
 NCOPY  =       0

     BOX TYPE: TRUNCATED OCTAHEDRON

--------------------------------------------------------------------------------
   2.  CONTROL  DATA  FOR  THE  RUN
--------------------------------------------------------------------------------

default_name

General flags:
     imin    =       0, nmropt  =       0

Nature and format of input:
     ntx     =       1, irest   =       0, ntrx    =       1

Nature and format of output:
     ntxo    =       1, ntpr    =      50, ntrx    =       1, ntwr    =     500
     iwrap   =       0, ntwx    =     500, ntwv    =       0, ntwe    =       0
     ioutfm  =       0, ntwprt  =       0, idecomp =       0, rbornstat=      0

Potential function:
     ntf     =       2, ntb     =       1, igb     =       0, nsnb    =      25
     ipol    =       0, gbsa    =       0, iesp    =       0
     dielc   =   1.00000, cut     =   8.00000, intdiel =   1.00000

Frozen or restrained atoms:
     ibelly  =       0, ntr     =       1
     restraint_wt =   5.00000

Molecular dynamics:
     nstlim  =     15000, nscm    =         0, nrespa  =         1
     t       =   0.00000, dt      =   0.00100, vlimit  =  -1.00000

Langevin dynamics temperature regulation:
     ig      =  390439
     temp0   = 300.00000, tempi   = 300.00000, gamma_ln=   5.00000

SHAKE:
     ntc     =       2, jfastw  =       0
     tol     =   0.00001

Ewald parameters:
     verbose =       0, ew_type =       0, nbflag  =       1, use_pme =       1
     vdwmeth =       1, eedmeth =       1, netfrc  =       1
     Box X =   61.911   Box Y =   61.911   Box Z =   61.911
     Alpha =  109.471   Beta  =  109.471   Gamma =  109.471
     NFFT1 =   64       NFFT2 =   64       NFFT3 =   64
     Cutoff=    8.000   Tol   =0.100E-04
     Ewald Coefficient =  0.34864
     Interpolation order =    4

    LOADING THE CONSTRAINED ATOMS AS GROUPS

   5.  REFERENCE ATOM COORDINATES

  default_name
     Mask :1-119&!@H=|:120; matches   944 atoms

--------------------------------------------------------------------------------
   3.  ATOMIC COORDINATES AND VELOCITIES
--------------------------------------------------------------------------------

default_name
 begin time read from input coords =     0.000 ps

 Number of triangulated 3-point waters found:     4568

     Sum of charges from parm topology file =  -0.00000006
     Forcing neutrality...

--------------------------------------------------------------------------------
   4.  RESULTS
 NSTEP =        0   TIME(PS) =       0.000  TEMP(K) =   435.10  PRESS =     0.0
 Etot   =    -49559.8470  EKtot   =     13974.9182  EPtot      =    -63534.7652
 BOND   =        43.8224  ANGLE   =       275.3950  DIHED      =      1175.7442
 1-4 NB =       412.5317  1-4 EEL =      6247.7249  VDWAALS    =      9431.3487
 EELEC  =    -81121.3321  EHBOND  =         0.0000  RESTRAINT  =         0.0000
 ------------------------------------------------------------------------------

      A V E R A G E S   O V E R     300 S T E P S

 NSTEP =    15000   TIME(PS) =      15.000  TEMP(K) =   297.92  PRESS =     0.0
 Etot   =    -35627.6395  EKtot   =      9569.0182  EPtot      =    -45196.6578
 BOND   =       327.0802  ANGLE   =       997.0521  DIHED      =      1344.7262
 1-4 NB =       449.1355  1-4 EEL =      6217.6266  VDWAALS    =      4894.7319
 EELEC  =    -59588.2904  EHBOND  =         0.0000  RESTRAINT  =       161.2802
 EAMBER (non-restraint)  =    -45357.9380
 ------------------------------------------------------------------------------

      R M S  F L U C T U A T I O N S

 NSTEP =    15000   TIME(PS) =      15.000  TEMP(K) =    11.17  PRESS =     0.0
 Etot   =       807.4679  EKtot   =       358.8253  EPtot      =       459.2998
 BOND   =        17.4329  ANGLE   =        33.3229  DIHED      =        13.0696
 1-4 NB =         8.0260  1-4 EEL =        18.5253  VDWAALS    =       297.5367
 EELEC  =       685.7804  EHBOND  =         0.0000  RESTRAINT  =         9.3434
 EAMBER (non-restraint)  =       449.9564
 ------------------------------------------------------------------------------
