-------------------------------------------------------
          Amber 18 PMEMD                              2018
          -------------------------------------------------------

  [-O]verwriting output

File Assignments:

 Here is the input file:

MD: step7.in
 &cntrl
   imin = 0, nstlim = 5000, dt = 0.001,
   ntx = 5, irest = 1, ig = -1,
   ntwx = 500, ntwv = 0, ioutfm = 0, ntxo = 1, ntpr = 50, ntwr = 500,
   iwrap = 0, nscm = 0,
   ntc = 2, ntf = 2, ntb = 2, cut = 8.0,
   ntt = 3, gamma_ln = 5, temp0 = 300, tempi = 300,
   ntp = 1, barostat = 2, pres0 = 1.0,
   ntr = 1, restraintmask = ":1-119&!@H=|:120", restraint_wt = 0.5,
 &end

Note: ig = -1. Setting random seed to   517726 based on wallclock time in
      microseconds.

--------------------------------------------------------------------------------
   1.  RESOURCE   USE:
--------------------------------------------------------------------------------

 getting new box info from bottom of inpcrd
 NATOM  =   15691 NTYPES =      17 NBONH =   14747 MBONA  =     953
 NTHETH =    2337 MTHETA =    1282 NPHIH =    4475 MPHIA  =    3254
 NHPARM =       0 NPARM  =       0 NNB   =   29243 NRES   =    4688
 NBONA  =     953 NTHETA =    1282 NPHIA =    3254 NUMBND =      42
 NUMANG =      92 NPTRA  =      39 NATYP =      28 NPHB   =       1
 IFBOX  =       2 NMXRS  =      24 IFCAP =       0 NEXTRA =       0
 NCOPY  =       0

     BOX TYPE: TRUNCATED OCTAHEDRON

--------------------------------------------------------------------------------
   2.  CONTROL  DATA  FOR  THE  RUN
--------------------------------------------------------------------------------

default_name

General flags:
     imin    =       0, nmropt  =       0

Nature and format of input:
     ntx     =       5, irest   =       1, ntrx    =       1

Nature and format of output:
     ntxo    =       1, ntpr    =      50, ntrx    =       1, ntwr    =     500
     iwrap   =       0, ntwx    =     500, ntwv    =       0, ntwe    =       0
     ioutfm  =       0, ntwprt  =       0, idecomp =       0, rbornstat=      0

Potential function:
     ntf     =       2, ntb     =       2, igb     =       0, nsnb    =      25
     ipol    =       0, gbsa    =       0, iesp    =       0
     dielc   =   1.00000, cut     =   8.00000, intdiel =   1.00000

Frozen or restrained atoms:
     ibelly  =       0, ntr     =       1
     restraint_wt =   0.50000

Molecular dynamics:
     nstlim  =      5000, nscm    =         0, nrespa  =         1
     t       =   0.00000, dt      =   0.00100, vlimit  =  -1.00000

Langevin dynamics temperature regulation:
     ig      =  517726
     temp0   = 300.00000, tempi   = 300.00000, gamma_ln=   5.00000

Pressure regulation:
     ntp     =       1
     pres0   =   1.00000, comp    =  44.60000, taup    =   1.00000
     Monte-Carlo Barostat:
     mcbarint  =     100

SHAKE:
     ntc     =       2, jfastw  =       0
     tol     =   0.00001

Ewald parameters:
     verbose =       0, ew_type =       0, nbflag  =       1, use_pme =       1
     vdwmeth =       1, eedmeth =       1, netfrc  =       1
     Box X =   59.926   Box Y =   59.926   Box Z =   59.926
     Alpha =  109.471   Beta  =  109.471   Gamma =  109.471
     NFFT1 =   64       NFFT2 =   64       NFFT3 =   64
     Cutoff=    8.000   Tol   =0.100E-04
     Ewald Coefficient =  0.34864
     Interpolation order =    4

    LOADING THE CONSTRAINED ATOMS AS GROUPS

   5.  REFERENCE ATOM COORDINATES

  default_name
     Mask :1-119&!@H=|:120; matches   944 atoms

--------------------------------------------------------------------------------
   3.  ATOMIC COORDINATES AND VELOCITIES
--------------------------------------------------------------------------------

default_name
 begin time read from input coords =     5.000 ps

 Number of triangulated 3-point waters found:     4568

     Sum of charges from parm topology file =  -0.00000006
     Forcing neutrality...

--------------------------------------------------------------------------------
   4.  RESULTS
 NSTEP =       50   TIME(PS) =       5.050  TEMP(K) =   305.21  PRESS =     0.0
 Etot   =    -35544.1061  EKtot   =      9802.9941  EPtot      =    -45347.1002
 BOND   =       327.8700  ANGLE   =      1003.8953  DIHED      =      1341.8873
 1-4 NB =       457.1046  1-4 EEL =      6201.4510  VDWAALS    =      5490.7144
 EELEC  =    -61426.4159  EHBOND  =         0.0000  RESTRAINT  =      1256.3930
 EAMBER (non-restraint)  =    -46603.4933
 EKCMT  =         0.0000  VIRIAL  =         0.0000  VOLUME     =    165665.1501
                                                    Density    =         0.9615
 ------------------------------------------------------------------------------

      A V E R A G E S   O V E R     100 S T E P S

 NSTEP =     5000   TIME(PS) =      10.000  TEMP(K) =   301.44  PRESS =     0.0
 Etot   =    -36946.3798  EKtot   =      9681.8741  EPtot      =    -46628.2539
 BOND   =       343.6343  ANGLE   =      1029.1790  DIHED      =      1345.5511
 1-4 NB =       443.6711  1-4 EEL =      6185.8253  VDWAALS    =      5277.0843
 EELEC  =    -61373.3940  EHBOND  =         0.0000  RESTRAINT  =       120.1951
 EAMBER (non-restraint)  =    -46748.4490
 EKCMT  =         0.0000  VIRIAL  =         0.0000  VOLUME     =    161703.8362
                                                    Density    =         0.9852
 ------------------------------------------------------------------------------

      R M S  F L U C T U A T I O N S

 NSTEP =     5000   TIME(PS) =      10.000  TEMP(K) =     2.72  PRESS =     0.0
 Etot   =       384.5591  EKtot   =        87.2910  EPtot      =       325.1288
 BOND   =        16.4361  ANGLE   =        22.7348  DIHED      =        11.8812
 1-4 NB =         8.0605  1-4 EEL =        22.1424  VDWAALS    =       102.2672
 EELEC  =       223.3987  EHBOND  =         0.0000  RESTRAINT  =       193.4648
 EAMBER (non-restraint)  =       131.6641
 EKCMT  =         0.0000  VIRIAL  =         0.0000  VOLUME     =      1926.2626
                                                    Density    =         0.0117
 ------------------------------------------------------------------------------
