-------------------------------------------------------
          Amber 18 PMEMD                              2018
          -------------------------------------------------------

  [-O]verwriting output

File Assignments:

 Here is the input file:

MD: step8.in
 &cntrl
   imin = 0, nstlim = 10000, dt = 0.001,
   ntx = 5, irest = 1, ig = -1,
   ntwx = 500, ntwv = 0, ioutfm = 0, ntxo = 1, ntpr = 50, ntwr = 500,
   iwrap = 0, nscm = 0,
   ntc = 2, ntf = 2, ntb = 2, cut = 8.0,
   ntt = 3, gamma_ln = 5, temp0 = 300, tempi = 300,
   ntp = 1, barostat = 2, pres0 = 1.0,
   ntr = 1, restraintmask = ":1-119@H,N,CA,HA,C,O|:120", restraint_wt = 0.5,
 &end

Note: ig = -1. Setting random seed to   454464 based on wallclock time in
      microseconds.

--------------------------------------------------------------------------------
   1.  RESOURCE   USE:
--------------------------------------------------------------------------------

 getting new box info from bottom of inpcrd
 NATOM  =   15691 NTYPES =      17 NBONH =   14747 MBONA  =     953
 NTHETH =    2337 MTHETA =    1282 NPHIH =    4475 MPHIA  =    3254
 NHPARM =       0 NPARM  =       0 NNB   =   29243 NRES   =    4688
 NBONA  =     953 NTHETA =    1282 NPHIA =    3254 NUMBND =      42
 NUMANG =      92 NPTRA  =      39 NATYP =      28 NPHB   =       1
 IFBOX  =       2 NMXRS  =      24 IFCAP =       0 NEXTRA =       0
 NCOPY  =       0

     BOX TYPE: TRUNCATED OCTAHEDRON

--------------------------------------------------------------------------------
   2.  CONTROL  DATA  FOR  THE  RUN
--------------------------------------------------------------------------------

default_name

General flags:
     imin    =       0, nmropt  =       0

Nature and format of input:
     ntx     =       5, irest   =       1, ntrx    =       1

Nature and format of output:
     ntxo    =       1, ntpr    =      50, ntrx    =       1, ntwr    =     500
     iwrap   =       0, ntwx    =     500, ntwv    =       0, ntwe    =       0
     ioutfm  =       0, ntwprt  =       0, idecomp =       0, rbornstat=      0

Potential function:
     ntf     =       2, ntb     =       2, igb     =       0, nsnb    =      25
     ipol    =       0, gbsa    =       0, iesp    =       0
     dielc   =   1.00000, cut     =   8.00000, intdiel =   1.00000

Frozen or restrained atoms:
     ibelly  =       0, ntr     =       1
     restraint_wt =   0.50000

Molecular dynamics:
     nstlim  =     10000, nscm    =         0, nrespa  =         1
     t       =   0.00000, dt      =   0.00100, vlimit  =  -1.00000

Langevin dynamics temperature regulation:
     ig      =  454464
     temp0   = 300.00000, tempi   = 300.00000, gamma_ln=   5.00000

Pressure regulation:
     ntp     =       1
     pres0   =   1.00000, comp    =  44.60000, taup    =   1.00000
     Monte-Carlo Barostat:
     mcbarint  =     100

SHAKE:
     ntc     =       2, jfastw  =       0
     tol     =   0.00001

Ewald parameters:
     verbose =       0, ew_type =       0, nbflag  =       1, use_pme =       1
     vdwmeth =       1, eedmeth =       1, netfrc  =       1
     Box X =   59.160   Box Y =   59.160   Box Z =   59.160
     Alpha =  109.471   Beta  =  109.471   Gamma =  109.471
     NFFT1 =   64       NFFT2 =   64       NFFT3 =   64
     Cutoff=    8.000   Tol   =0.100E-04
     Ewald Coefficient =  0.34864
     Interpolation order =    4

    LOADING THE CONSTRAINED ATOMS AS GROUPS

   5.  REFERENCE ATOM COORDINATES

  default_name
     Mask :1-119@H,N,CA,HA,C,O|:120; matches   709 atoms

--------------------------------------------------------------------------------
   3.  ATOMIC COORDINATES AND VELOCITIES
--------------------------------------------------------------------------------

default_name
 begin time read from input coords =    10.000 ps

 Number of triangulated 3-point waters found:     4568

     Sum of charges from parm topology file =  -0.00000006
     Forcing neutrality...

--------------------------------------------------------------------------------
   4.  RESULTS
 NSTEP =       50   TIME(PS) =      10.050  TEMP(K) =   300.12  PRESS =     0.0
 Etot   =    -37119.3184  EKtot   =      9639.6367  EPtot      =    -46758.9551
 BOND   =       366.1681  ANGLE   =      1011.1803  DIHED      =      1347.0245
 1-4 NB =       439.3051  1-4 EEL =      6167.2378  VDWAALS    =      5178.3465
 EELEC  =    -61471.0087  EHBOND  =         0.0000  RESTRAINT  =       202.7912
 EAMBER (non-restraint)  =    -46961.7464
 EKCMT  =         0.0000  VIRIAL  =         0.0000  VOLUME     =    159391.7780
                                                    Density    =         0.9994
 ------------------------------------------------------------------------------

      A V E R A G E S   O V E R     200 S T E P S

 NSTEP =    10000   TIME(PS) =      20.000  TEMP(K) =   300.11  PRESS =     0.0
 Etot   =    -37378.0574  EKtot   =      9639.3095  EPtot      =    -47017.3669
 BOND   =       341.3681  ANGLE   =      1030.9387  DIHED      =      1348.7513
 1-4 NB =       443.5644  1-4 EEL =      6182.3566  VDWAALS    =      5327.9990
 EELEC  =    -61736.4844  EHBOND  =         0.0000  RESTRAINT  =        44.1394
 EAMBER (non-restraint)  =    -47061.5063
 EKCMT  =         0.0000  VIRIAL  =         0.0000  VOLUME     =    157290.8092
                                                    Density    =         1.0128
 ------------------------------------------------------------------------------

      R M S  F L U C T U A T I O N S

 NSTEP =    10000   TIME(PS) =      20.000  TEMP(K) =     2.13  PRESS =     0.0
 Etot   =       108.3632  EKtot   =        68.4684  EPtot      =        87.0553
 BOND   =        14.8100  ANGLE   =        23.2769  DIHED      =        11.4348
 1-4 NB =         8.3219  1-4 EEL =        20.5191  VDWAALS    =        96.6217
 EELEC  =       125.1528  EHBOND  =         0.0000  RESTRAINT  =        19.5826
 EAMBER (non-restraint)  =        67.4727
 EKCMT  =         0.0000  VIRIAL  =         0.0000  VOLUME     =       660.4372
                                                    Density    =         0.0042
 ------------------------------------------------------------------------------
