-------------------------------------------------------
          Amber 18 PMEMD                              2018
          -------------------------------------------------------

  [-O]verwriting output

File Assignments:

 Here is the input file:

Final equilibration step.
&cntrl
imin = 0,                           ! No Minimization
nmropt = 0,                         ! No NMR restraints read

! Nature and format of the input
ntx = 5,                            ! Coordinates and velocities will be read
irest = 1,                          ! Do not run a new simulation

! Nature and format of the output
ntxo = 1,                           ! rstrt file in ASCII format
ioutfm = 1,                         ! mdcrd file in NetCDF format
ntpr = 500,                         ! inf in output every ntpr steps
ntwr = 50000,                       ! rstrt file every ntwr steps
ntwx = 5000,                        ! mdcrd file every ntwx steps
ntwv = -1,                          ! velocities written to mdcrd

! Frozen or restrained atoms
ibelly = 0,                         ! No frozen atoms
ntr=0,                              ! Harmonic potential restraints

! Molecular dynamics
nstlim = 2485000,                   ! Number of MD-steps
dt = 0.002,                         ! Time step
nscm = 1000,                        ! COM reset afre nscm steps
iwrap = 0,                          ! no need to wrap coords in rst nor mdcrd

! Temperature regulation
ntt = 3,                            ! Langevin thermostat
gamma_ln = 5,                       ! Gamma constant for Langevin
temp0 = 300,                        ! Reference T at which the system is to be
tempi = 300,                        ! Initial T
ig = -1,                            ! Seed for the RNG

! P and V regulation
ntp = 1,                            ! constant P
barostat = 2,                       ! Monte Carlo barostat
mcbarint = 100,                     ! steps between volume change attempts by M
pres0 = 1.0,                        ! Set pressure
ntb = 2,                            ! Periodic box for constant P

! SHAKE variables
ntc = 2,                            ! Bonds involving H are constrained
ntf = 2,                            ! Bond interaction involving H are ommited

cut = 9.0,

&end

Note: ig = -1. Setting random seed to   534675 based on wallclock time in
      microseconds.

--------------------------------------------------------------------------------
   1.  RESOURCE   USE:
--------------------------------------------------------------------------------

 getting new box info from bottom of inpcrd
 NATOM  =   19204 NTYPES =      18 NBONH =   18248 MBONA  =     965
 NTHETH =    2360 MTHETA =    1297 NPHIH =    4513 MPHIA  =    3275
 NHPARM =       0 NPARM  =       0 NNB   =   34006 NRES   =    5852
 NBONA  =     965 NTHETA =    1297 NPHIA =    3275 NUMBND =      54
 NUMANG =     109 NPTRA  =      44 NATYP =      37 NPHB   =       1
 IFBOX  =       2 NMXRS  =      24 IFCAP =       0 NEXTRA =       0
 NCOPY  =       0

     BOX TYPE: TRUNCATED OCTAHEDRON

--------------------------------------------------------------------------------
   2.  CONTROL  DATA  FOR  THE  RUN
--------------------------------------------------------------------------------

default_name

General flags:
     imin    =       0, nmropt  =       0

Nature and format of input:
     ntx     =       5, irest   =       1, ntrx    =       1

Nature and format of output:
     ntxo    =       1, ntpr    =     500, ntrx    =       1, ntwr    =   50000
     iwrap   =       0, ntwx    =    5000, ntwv    =      -1, ntwe    =       0
     ioutfm  =       1, ntwprt  =       0, idecomp =       0, rbornstat=      0

Potential function:
     ntf     =       2, ntb     =       2, igb     =       0, nsnb    =      25
     ipol    =       0, gbsa    =       0, iesp    =       0
     dielc   =   1.00000, cut     =   9.00000, intdiel =   1.00000

Frozen or restrained atoms:
     ibelly  =       0, ntr     =       0

Molecular dynamics:
     nstlim  =   2485000, nscm    =      1000, nrespa  =         1
     t       =   0.00000, dt      =   0.00200, vlimit  =  -1.00000

Langevin dynamics temperature regulation:
     ig      =  534675
     temp0   = 300.00000, tempi   = 300.00000, gamma_ln=   5.00000

Pressure regulation:
     ntp     =       1
     pres0   =   1.00000, comp    =  44.60000, taup    =   1.00000
     Monte-Carlo Barostat:
     mcbarint  =     100

SHAKE:
     ntc     =       2, jfastw  =       0
     tol     =   0.00001

Ewald parameters:
     verbose =       0, ew_type =       0, nbflag  =       1, use_pme =       1
     vdwmeth =       1, eedmeth =       1, netfrc  =       1
     Box X =   62.821   Box Y =   62.821   Box Z =   62.821
     Alpha =  109.471   Beta  =  109.471   Gamma =  109.471
     NFFT1 =   64       NFFT2 =   64       NFFT3 =   64
     Cutoff=    9.000   Tol   =0.100E-04
     Ewald Coefficient =  0.30768
     Interpolation order =    4

--------------------------------------------------------------------------------
   3.  ATOMIC COORDINATES AND VELOCITIES
--------------------------------------------------------------------------------

default_name
 begin time read from input coords =    30.000 ps

 Number of triangulated 3-point waters found:     5731

     Sum of charges from parm topology file =  -0.00000006
     Forcing neutrality...

--------------------------------------------------------------------------------
   4.  RESULTS
 NSTEP =      500   TIME(PS) =      31.000  TEMP(K) =   301.82  PRESS =     0.0
 Etot   =    -46405.2981  EKtot   =     11804.7715  EPtot      =    -58210.0696
 BOND   =       379.1539  ANGLE   =      1026.6576  DIHED      =      1361.6971
 1-4 NB =       436.6403  1-4 EEL =      6250.0630  VDWAALS    =      7027.7758
 EELEC  =    -74692.0573  EHBOND  =         0.0000  RESTRAINT  =         0.0000
 EKCMT  =         0.0000  VIRIAL  =         0.0000  VOLUME     =    190443.5465
                                                    Density    =         1.0206
 ------------------------------------------------------------------------------

      A V E R A G E S   O V E R    4970 S T E P S

 NSTEP =  2485000   TIME(PS) =    5000.000  TEMP(K) =   300.00  PRESS =     0.0
 Etot   =    -46527.6176  EKtot   =     11733.7343  EPtot      =    -58261.3519
 BOND   =       356.8158  ANGLE   =      1068.1777  DIHED      =      1356.6208
 1-4 NB =       447.5613  1-4 EEL =      6337.7122  VDWAALS    =      6991.7745
 EELEC  =    -74820.0144  EHBOND  =         0.0000  RESTRAINT  =         0.0000
 EKCMT  =         0.0000  VIRIAL  =         0.0000  VOLUME     =    190799.2526
                                                    Density    =         1.0187
 ------------------------------------------------------------------------------

      R M S  F L U C T U A T I O N S

 NSTEP =  2485000   TIME(PS) =    5000.000  TEMP(K) =     2.14  PRESS =     0.0
 Etot   =       148.4573  EKtot   =        83.6112  EPtot      =       122.9307
 BOND   =        15.9806  ANGLE   =        24.7201  DIHED      =        13.8234
 1-4 NB =         9.1365  1-4 EEL =        26.2994  VDWAALS    =       120.3739
 EELEC  =       194.5779  EHBOND  =         0.0000  RESTRAINT  =         0.0000
 EKCMT  =         0.0000  VIRIAL  =         0.0000  VOLUME     =       654.2655
                                                    Density    =         0.0035
 ------------------------------------------------------------------------------
