-------------------------------------------------------
          Amber 18 PMEMD                              2018
          -------------------------------------------------------

  [-O]verwriting output

File Assignments:

 Here is the input file:

MD: step6.in
 &cntrl
   imin = 0, nstlim = 5000, dt = 0.001,
   ntx = 1, irest = 0, ig = -1,
   ntwx = 500, ntwv = 0, ioutfm = 0, ntxo = 1, ntpr = 50, ntwr = 500,
   iwrap = 0, nscm = 0,
   ntc = 2, ntf = 2, ntb = 2, cut = 8.0,
   ntt = 3, gamma_ln = 5, temp0 = 300, tempi = 300,
   ntp = 1, barostat = 2, pres0 = 1.0,
   ntr = 1, restraintmask = ":1-119&!@H=|:120", restraint_wt = 1.0,
 &end

Note: ig = -1. Setting random seed to   877841 based on wallclock time in
      microseconds.

--------------------------------------------------------------------------------
   1.  RESOURCE   USE:
--------------------------------------------------------------------------------

 getting new box info from bottom of inpcrd
 NATOM  =   19204 NTYPES =      18 NBONH =   18248 MBONA  =     965
 NTHETH =    2360 MTHETA =    1297 NPHIH =    4513 MPHIA  =    3275
 NHPARM =       0 NPARM  =       0 NNB   =   34006 NRES   =    5852
 NBONA  =     965 NTHETA =    1297 NPHIA =    3275 NUMBND =      54
 NUMANG =     109 NPTRA  =      44 NATYP =      37 NPHB   =       1
 IFBOX  =       2 NMXRS  =      24 IFCAP =       0 NEXTRA =       0
 NCOPY  =       0

     BOX TYPE: TRUNCATED OCTAHEDRON

--------------------------------------------------------------------------------
   2.  CONTROL  DATA  FOR  THE  RUN
--------------------------------------------------------------------------------

default_name

General flags:
     imin    =       0, nmropt  =       0

Nature and format of input:
     ntx     =       1, irest   =       0, ntrx    =       1

Nature and format of output:
     ntxo    =       1, ntpr    =      50, ntrx    =       1, ntwr    =     500
     iwrap   =       0, ntwx    =     500, ntwv    =       0, ntwe    =       0
     ioutfm  =       0, ntwprt  =       0, idecomp =       0, rbornstat=      0

Potential function:
     ntf     =       2, ntb     =       2, igb     =       0, nsnb    =      25
     ipol    =       0, gbsa    =       0, iesp    =       0
     dielc   =   1.00000, cut     =   8.00000, intdiel =   1.00000

Frozen or restrained atoms:
     ibelly  =       0, ntr     =       1
     restraint_wt =   1.00000

Molecular dynamics:
     nstlim  =      5000, nscm    =         0, nrespa  =         1
     t       =   0.00000, dt      =   0.00100, vlimit  =  -1.00000

Langevin dynamics temperature regulation:
     ig      =  877841
     temp0   = 300.00000, tempi   = 300.00000, gamma_ln=   5.00000

Pressure regulation:
     ntp     =       1
     pres0   =   1.00000, comp    =  44.60000, taup    =   1.00000
     Monte-Carlo Barostat:
     mcbarint  =     100

SHAKE:
     ntc     =       2, jfastw  =       0
     tol     =   0.00001

Ewald parameters:
     verbose =       0, ew_type =       0, nbflag  =       1, use_pme =       1
     vdwmeth =       1, eedmeth =       1, netfrc  =       1
     Box X =   65.908   Box Y =   65.908   Box Z =   65.908
     Alpha =  109.471   Beta  =  109.471   Gamma =  109.471
     NFFT1 =   64       NFFT2 =   64       NFFT3 =   64
     Cutoff=    8.000   Tol   =0.100E-04
     Ewald Coefficient =  0.34864
     Interpolation order =    4

    LOADING THE CONSTRAINED ATOMS AS GROUPS

   5.  REFERENCE ATOM COORDINATES

  default_name
     Mask :1-119&!@H=|:120; matches   967 atoms

--------------------------------------------------------------------------------
   3.  ATOMIC COORDINATES AND VELOCITIES
--------------------------------------------------------------------------------

default_name
 begin time read from input coords =     0.000 ps

 Number of triangulated 3-point waters found:     5731

     Sum of charges from parm topology file =  -0.00000006
     Forcing neutrality...

--------------------------------------------------------------------------------
   4.  RESULTS
 NSTEP =        0   TIME(PS) =       0.000  TEMP(K) =   444.65  PRESS =     0.0
 Etot   =    -65427.8494  EKtot   =     17391.1699  EPtot      =    -82819.0193
 BOND   =        59.4330  ANGLE   =       289.4902  DIHED      =      1165.8545
 1-4 NB =       385.0396  1-4 EEL =      6260.7649  VDWAALS    =     12465.1617
 EELEC  =   -103444.7631  EHBOND  =         0.0000  RESTRAINT  =         0.0000
 EKCMT  =         0.0000  VIRIAL  =         0.0000  VOLUME     =    220392.2849
                                                    Density    =         0.8819
 ------------------------------------------------------------------------------

      A V E R A G E S   O V E R     100 S T E P S

 NSTEP =     5000   TIME(PS) =       5.000  TEMP(K) =   294.61  PRESS =     0.0
 Etot   =    -46139.2200  EKtot   =     11522.7560  EPtot      =    -57661.9759
 BOND   =       334.1664  ANGLE   =      1009.8960  DIHED      =      1341.4335
 1-4 NB =       447.7930  1-4 EEL =      6259.1297  VDWAALS    =      7185.5137
 EELEC  =    -74319.5199  EHBOND  =         0.0000  RESTRAINT  =        79.6118
 EAMBER (non-restraint)  =    -57741.5877
 EKCMT  =         0.0000  VIRIAL  =         0.0000  VOLUME     =    210229.6344
                                                    Density    =         0.9253
 ------------------------------------------------------------------------------

      R M S  F L U C T U A T I O N S

 NSTEP =     5000   TIME(PS) =       5.000  TEMP(K) =    19.17  PRESS =     0.0
 Etot   =      2088.8948  EKtot   =       749.6521  EPtot      =      1354.8943
 BOND   =        23.5058  ANGLE   =        52.0670  DIHED      =        15.5437
 1-4 NB =        10.1677  1-4 EEL =        19.4073  VDWAALS    =       796.1269
 EELEC  =      2041.6479  EHBOND  =         0.0000  RESTRAINT  =         9.4540
 EAMBER (non-restraint)  =      1345.4403
 EKCMT  =         0.0000  VIRIAL  =         0.0000  VOLUME     =      6092.6094
                                                    Density    =         0.0270
 ------------------------------------------------------------------------------
