-------------------------------------------------------
          Amber 18 PMEMD                              2018
          -------------------------------------------------------

  [-O]verwriting output

File Assignments:

 Here is the input file:

MD: step7.in
 &cntrl
   imin = 0, nstlim = 5000, dt = 0.001,
   ntx = 5, irest = 1, ig = -1,
   ntwx = 500, ntwv = 0, ioutfm = 0, ntxo = 1, ntpr = 50, ntwr = 500,
   iwrap = 0, nscm = 0,
   ntc = 2, ntf = 2, ntb = 2, cut = 8.0,
   ntt = 3, gamma_ln = 5, temp0 = 300, tempi = 300,
   ntp = 1, barostat = 2, pres0 = 1.0,
   ntr = 1, restraintmask = ":1-119&!@H=|:120", restraint_wt = 0.5,
 &end

Note: ig = -1. Setting random seed to   302224 based on wallclock time in
      microseconds.

--------------------------------------------------------------------------------
   1.  RESOURCE   USE:
--------------------------------------------------------------------------------

 getting new box info from bottom of inpcrd
 NATOM  =   19204 NTYPES =      18 NBONH =   18248 MBONA  =     965
 NTHETH =    2360 MTHETA =    1297 NPHIH =    4513 MPHIA  =    3275
 NHPARM =       0 NPARM  =       0 NNB   =   34006 NRES   =    5852
 NBONA  =     965 NTHETA =    1297 NPHIA =    3275 NUMBND =      54
 NUMANG =     109 NPTRA  =      44 NATYP =      37 NPHB   =       1
 IFBOX  =       2 NMXRS  =      24 IFCAP =       0 NEXTRA =       0
 NCOPY  =       0

     BOX TYPE: TRUNCATED OCTAHEDRON

--------------------------------------------------------------------------------
   2.  CONTROL  DATA  FOR  THE  RUN
--------------------------------------------------------------------------------

default_name

General flags:
     imin    =       0, nmropt  =       0

Nature and format of input:
     ntx     =       5, irest   =       1, ntrx    =       1

Nature and format of output:
     ntxo    =       1, ntpr    =      50, ntrx    =       1, ntwr    =     500
     iwrap   =       0, ntwx    =     500, ntwv    =       0, ntwe    =       0
     ioutfm  =       0, ntwprt  =       0, idecomp =       0, rbornstat=      0

Potential function:
     ntf     =       2, ntb     =       2, igb     =       0, nsnb    =      25
     ipol    =       0, gbsa    =       0, iesp    =       0
     dielc   =   1.00000, cut     =   8.00000, intdiel =   1.00000

Frozen or restrained atoms:
     ibelly  =       0, ntr     =       1
     restraint_wt =   0.50000

Molecular dynamics:
     nstlim  =      5000, nscm    =         0, nrespa  =         1
     t       =   0.00000, dt      =   0.00100, vlimit  =  -1.00000

Langevin dynamics temperature regulation:
     ig      =  302224
     temp0   = 300.00000, tempi   = 300.00000, gamma_ln=   5.00000

Pressure regulation:
     ntp     =       1
     pres0   =   1.00000, comp    =  44.60000, taup    =   1.00000
     Monte-Carlo Barostat:
     mcbarint  =     100

SHAKE:
     ntc     =       2, jfastw  =       0
     tol     =   0.00001

Ewald parameters:
     verbose =       0, ew_type =       0, nbflag  =       1, use_pme =       1
     vdwmeth =       1, eedmeth =       1, netfrc  =       1
     Box X =   63.781   Box Y =   63.781   Box Z =   63.781
     Alpha =  109.471   Beta  =  109.471   Gamma =  109.471
     NFFT1 =   64       NFFT2 =   64       NFFT3 =   64
     Cutoff=    8.000   Tol   =0.100E-04
     Ewald Coefficient =  0.34864
     Interpolation order =    4

    LOADING THE CONSTRAINED ATOMS AS GROUPS

   5.  REFERENCE ATOM COORDINATES

  default_name
     Mask :1-119&!@H=|:120; matches   967 atoms

--------------------------------------------------------------------------------
   3.  ATOMIC COORDINATES AND VELOCITIES
--------------------------------------------------------------------------------

default_name
 begin time read from input coords =     5.000 ps

 Number of triangulated 3-point waters found:     5731

     Sum of charges from parm topology file =  -0.00000006
     Forcing neutrality...

--------------------------------------------------------------------------------
   4.  RESULTS
 NSTEP =       50   TIME(PS) =       5.050  TEMP(K) =   302.19  PRESS =     0.0
 Etot   =    -44452.4969  EKtot   =     11819.1016  EPtot      =    -56271.5984
 BOND   =       325.0732  ANGLE   =      1012.7434  DIHED      =      1345.7390
 1-4 NB =       451.9965  1-4 EEL =      6275.5216  VDWAALS    =      6964.4357
 EELEC  =    -74115.8507  EHBOND  =         0.0000  RESTRAINT  =      1468.7428
 EAMBER (non-restraint)  =    -57740.3413
 EKCMT  =         0.0000  VIRIAL  =         0.0000  VOLUME     =    199736.3290
                                                    Density    =         0.9731
 ------------------------------------------------------------------------------

      A V E R A G E S   O V E R     100 S T E P S

 NSTEP =     5000   TIME(PS) =      10.000  TEMP(K) =   300.61  PRESS =     0.0
 Etot   =    -46174.4469  EKtot   =     11757.4971  EPtot      =    -57931.9440
 BOND   =       343.9438  ANGLE   =      1031.1101  DIHED      =      1349.0952
 1-4 NB =       451.6474  1-4 EEL =      6260.5325  VDWAALS    =      7004.1414
 EELEC  =    -74501.9868  EHBOND  =         0.0000  RESTRAINT  =       129.5724
 EAMBER (non-restraint)  =    -58061.5164
 EKCMT  =         0.0000  VIRIAL  =         0.0000  VOLUME     =    195127.8828
                                                    Density    =         0.9962
 ------------------------------------------------------------------------------

      R M S  F L U C T U A T I O N S

 NSTEP =     5000   TIME(PS) =      10.000  TEMP(K) =     2.91  PRESS =     0.0
 Etot   =       428.0882  EKtot   =       113.6257  EPtot      =       355.8103
 BOND   =        17.7394  ANGLE   =        21.2797  DIHED      =        11.4179
 1-4 NB =         8.4629  1-4 EEL =        21.8644  VDWAALS    =       151.7464
 EELEC  =       276.0030  EHBOND  =         0.0000  RESTRAINT  =       222.5242
 EAMBER (non-restraint)  =       133.2861
 EKCMT  =         0.0000  VIRIAL  =         0.0000  VOLUME     =      1924.7570
                                                    Density    =         0.0098
 ------------------------------------------------------------------------------
