-------------------------------------------------------
          Amber 18 PMEMD                              2018
          -------------------------------------------------------

  [-O]verwriting output

File Assignments:

 Here is the input file:

MD: step8.in
 &cntrl
   imin = 0, nstlim = 10000, dt = 0.001,
   ntx = 5, irest = 1, ig = -1,
   ntwx = 500, ntwv = 0, ioutfm = 0, ntxo = 1, ntpr = 50, ntwr = 500,
   iwrap = 0, nscm = 0,
   ntc = 2, ntf = 2, ntb = 2, cut = 8.0,
   ntt = 3, gamma_ln = 5, temp0 = 300, tempi = 300,
   ntp = 1, barostat = 2, pres0 = 1.0,
   ntr = 1, restraintmask = ":1-119@H,N,CA,HA,C,O|:120", restraint_wt = 0.5,
 &end

Note: ig = -1. Setting random seed to   705997 based on wallclock time in
      microseconds.

--------------------------------------------------------------------------------
   1.  RESOURCE   USE:
--------------------------------------------------------------------------------

 getting new box info from bottom of inpcrd
 NATOM  =   19204 NTYPES =      18 NBONH =   18248 MBONA  =     965
 NTHETH =    2360 MTHETA =    1297 NPHIH =    4513 MPHIA  =    3275
 NHPARM =       0 NPARM  =       0 NNB   =   34006 NRES   =    5852
 NBONA  =     965 NTHETA =    1297 NPHIA =    3275 NUMBND =      54
 NUMANG =     109 NPTRA  =      44 NATYP =      37 NPHB   =       1
 IFBOX  =       2 NMXRS  =      24 IFCAP =       0 NEXTRA =       0
 NCOPY  =       0

     BOX TYPE: TRUNCATED OCTAHEDRON

--------------------------------------------------------------------------------
   2.  CONTROL  DATA  FOR  THE  RUN
--------------------------------------------------------------------------------

default_name

General flags:
     imin    =       0, nmropt  =       0

Nature and format of input:
     ntx     =       5, irest   =       1, ntrx    =       1

Nature and format of output:
     ntxo    =       1, ntpr    =      50, ntrx    =       1, ntwr    =     500
     iwrap   =       0, ntwx    =     500, ntwv    =       0, ntwe    =       0
     ioutfm  =       0, ntwprt  =       0, idecomp =       0, rbornstat=      0

Potential function:
     ntf     =       2, ntb     =       2, igb     =       0, nsnb    =      25
     ipol    =       0, gbsa    =       0, iesp    =       0
     dielc   =   1.00000, cut     =   8.00000, intdiel =   1.00000

Frozen or restrained atoms:
     ibelly  =       0, ntr     =       1
     restraint_wt =   0.50000

Molecular dynamics:
     nstlim  =     10000, nscm    =         0, nrespa  =         1
     t       =   0.00000, dt      =   0.00100, vlimit  =  -1.00000

Langevin dynamics temperature regulation:
     ig      =  705997
     temp0   = 300.00000, tempi   = 300.00000, gamma_ln=   5.00000

Pressure regulation:
     ntp     =       1
     pres0   =   1.00000, comp    =  44.60000, taup    =   1.00000
     Monte-Carlo Barostat:
     mcbarint  =     100

SHAKE:
     ntc     =       2, jfastw  =       0
     tol     =   0.00001

Ewald parameters:
     verbose =       0, ew_type =       0, nbflag  =       1, use_pme =       1
     vdwmeth =       1, eedmeth =       1, netfrc  =       1
     Box X =   63.006   Box Y =   63.006   Box Z =   63.006
     Alpha =  109.471   Beta  =  109.471   Gamma =  109.471
     NFFT1 =   64       NFFT2 =   64       NFFT3 =   64
     Cutoff=    8.000   Tol   =0.100E-04
     Ewald Coefficient =  0.34864
     Interpolation order =    4

    LOADING THE CONSTRAINED ATOMS AS GROUPS

   5.  REFERENCE ATOM COORDINATES

  default_name
     Mask :1-119@H,N,CA,HA,C,O|:120; matches   732 atoms

--------------------------------------------------------------------------------
   3.  ATOMIC COORDINATES AND VELOCITIES
--------------------------------------------------------------------------------

default_name
 begin time read from input coords =    10.000 ps

 Number of triangulated 3-point waters found:     5731

     Sum of charges from parm topology file =  -0.00000006
     Forcing neutrality...

--------------------------------------------------------------------------------
   4.  RESULTS
 NSTEP =       50   TIME(PS) =      10.050  TEMP(K) =   303.36  PRESS =     0.0
 Etot   =    -46240.6418  EKtot   =     11865.0449  EPtot      =    -58105.6867
 BOND   =       371.9759  ANGLE   =      1068.6177  DIHED      =      1362.3993
 1-4 NB =       440.9555  1-4 EEL =      6247.9728  VDWAALS    =      7288.3332
 EELEC  =    -75075.2164  EHBOND  =         0.0000  RESTRAINT  =       189.2754
 EAMBER (non-restraint)  =    -58294.9621
 EKCMT  =         0.0000  VIRIAL  =         0.0000  VOLUME     =    192542.5650
                                                    Density    =         1.0094
 ------------------------------------------------------------------------------

      A V E R A G E S   O V E R     200 S T E P S

 NSTEP =    10000   TIME(PS) =      20.000  TEMP(K) =   300.20  PRESS =     0.0
 Etot   =    -46526.3882  EKtot   =     11741.3335  EPtot      =    -58267.7217
 BOND   =       343.5078  ANGLE   =      1036.6563  DIHED      =      1348.3942
 1-4 NB =       451.3274  1-4 EEL =      6256.6512  VDWAALS    =      7004.3834
 EELEC  =    -74752.3228  EHBOND  =         0.0000  RESTRAINT  =        43.6809
 EAMBER (non-restraint)  =    -58311.4026
 EKCMT  =         0.0000  VIRIAL  =         0.0000  VOLUME     =    191692.0942
                                                    Density    =         1.0139
 ------------------------------------------------------------------------------

      R M S  F L U C T U A T I O N S

 NSTEP =    10000   TIME(PS) =      20.000  TEMP(K) =     2.08  PRESS =     0.0
 Etot   =       140.6759  EKtot   =        81.3718  EPtot      =       118.7291
 BOND   =        15.0420  ANGLE   =        22.9392  DIHED      =        12.6355
 1-4 NB =         8.8976  1-4 EEL =        19.4720  VDWAALS    =       107.5602
 EELEC  =       174.1304  EHBOND  =         0.0000  RESTRAINT  =        19.0600
 EAMBER (non-restraint)  =        99.6691
 EKCMT  =         0.0000  VIRIAL  =         0.0000  VOLUME     =       798.1610
                                                    Density    =         0.0042
 ------------------------------------------------------------------------------
