-------------------------------------------------------
          Amber 18 PMEMD                              2018
          -------------------------------------------------------

  [-O]verwriting output

File Assignments:

 Here is the input file:

MD: step9.in
 &cntrl
   imin = 0, nstlim = 5000, dt = 0.002,
   ntx = 5, irest = 1, ig = -1,
   ntwx = 500, ntwv = 0, ioutfm = 0, ntxo = 1, ntpr = 50, ntwr = 500,
   iwrap = 0, nscm = 1000,
   ntc = 2, ntf = 2, ntb = 2, cut = 8.0,
   ntt = 3, gamma_ln = 5, temp0 = 300, tempi = 300,
   ntp = 1, barostat = 2, pres0 = 1.0,
   ntr = 0,
 &end

Note: ig = -1. Setting random seed to   978086 based on wallclock time in
      microseconds.

--------------------------------------------------------------------------------
   1.  RESOURCE   USE:
--------------------------------------------------------------------------------

 getting new box info from bottom of inpcrd
 NATOM  =   19204 NTYPES =      18 NBONH =   18248 MBONA  =     965
 NTHETH =    2360 MTHETA =    1297 NPHIH =    4513 MPHIA  =    3275
 NHPARM =       0 NPARM  =       0 NNB   =   34006 NRES   =    5852
 NBONA  =     965 NTHETA =    1297 NPHIA =    3275 NUMBND =      54
 NUMANG =     109 NPTRA  =      44 NATYP =      37 NPHB   =       1
 IFBOX  =       2 NMXRS  =      24 IFCAP =       0 NEXTRA =       0
 NCOPY  =       0

     BOX TYPE: TRUNCATED OCTAHEDRON

--------------------------------------------------------------------------------
   2.  CONTROL  DATA  FOR  THE  RUN
--------------------------------------------------------------------------------

default_name

General flags:
     imin    =       0, nmropt  =       0

Nature and format of input:
     ntx     =       5, irest   =       1, ntrx    =       1

Nature and format of output:
     ntxo    =       1, ntpr    =      50, ntrx    =       1, ntwr    =     500
     iwrap   =       0, ntwx    =     500, ntwv    =       0, ntwe    =       0
     ioutfm  =       0, ntwprt  =       0, idecomp =       0, rbornstat=      0

Potential function:
     ntf     =       2, ntb     =       2, igb     =       0, nsnb    =      25
     ipol    =       0, gbsa    =       0, iesp    =       0
     dielc   =   1.00000, cut     =   8.00000, intdiel =   1.00000

Frozen or restrained atoms:
     ibelly  =       0, ntr     =       0

Molecular dynamics:
     nstlim  =      5000, nscm    =      1000, nrespa  =         1
     t       =   0.00000, dt      =   0.00200, vlimit  =  -1.00000

Langevin dynamics temperature regulation:
     ig      =  978086
     temp0   = 300.00000, tempi   = 300.00000, gamma_ln=   5.00000

Pressure regulation:
     ntp     =       1
     pres0   =   1.00000, comp    =  44.60000, taup    =   1.00000
     Monte-Carlo Barostat:
     mcbarint  =     100

SHAKE:
     ntc     =       2, jfastw  =       0
     tol     =   0.00001

Ewald parameters:
     verbose =       0, ew_type =       0, nbflag  =       1, use_pme =       1
     vdwmeth =       1, eedmeth =       1, netfrc  =       1
     Box X =   62.717   Box Y =   62.717   Box Z =   62.717
     Alpha =  109.471   Beta  =  109.471   Gamma =  109.471
     NFFT1 =   64       NFFT2 =   64       NFFT3 =   64
     Cutoff=    8.000   Tol   =0.100E-04
     Ewald Coefficient =  0.34864
     Interpolation order =    4

--------------------------------------------------------------------------------
   3.  ATOMIC COORDINATES AND VELOCITIES
--------------------------------------------------------------------------------

default_name
 begin time read from input coords =    20.000 ps

 Number of triangulated 3-point waters found:     5731

     Sum of charges from parm topology file =  -0.00000006
     Forcing neutrality...

--------------------------------------------------------------------------------
   4.  RESULTS
 NSTEP =       50   TIME(PS) =      20.100  TEMP(K) =   298.10  PRESS =     0.0
 Etot   =    -46687.8918  EKtot   =     11659.2725  EPtot      =    -58347.1642
 BOND   =       366.2487  ANGLE   =      1064.4402  DIHED      =      1352.3456
 1-4 NB =       463.2697  1-4 EEL =      6246.9811  VDWAALS    =      6989.6040
 EELEC  =    -74830.0536  EHBOND  =         0.0000  RESTRAINT  =         0.0000
 EKCMT  =         0.0000  VIRIAL  =         0.0000  VOLUME     =    189900.2698
                                                    Density    =         1.0235
 ------------------------------------------------------------------------------

      A V E R A G E S   O V E R     100 S T E P S

 NSTEP =     5000   TIME(PS) =      30.000  TEMP(K) =   300.11  PRESS =     0.0
 Etot   =    -46498.3711  EKtot   =     11738.0475  EPtot      =    -58236.4185
 BOND   =       356.8226  ANGLE   =      1068.6227  DIHED      =      1352.4255
 1-4 NB =       450.4839  1-4 EEL =      6265.6758  VDWAALS    =      7000.2838
 EELEC  =    -74730.7329  EHBOND  =         0.0000  RESTRAINT  =         0.0000
 EKCMT  =         0.0000  VIRIAL  =         0.0000  VOLUME     =    190820.9570
                                                    Density    =         1.0186
 ------------------------------------------------------------------------------

      R M S  F L U C T U A T I O N S

 NSTEP =     5000   TIME(PS) =      30.000  TEMP(K) =     2.07  PRESS =     0.0
 Etot   =       148.3085  EKtot   =        81.1445  EPtot      =       117.2265
 BOND   =        14.9304  ANGLE   =        22.2779  DIHED      =        12.7953
 1-4 NB =         8.8393  1-4 EEL =        23.6813  VDWAALS    =       111.3440
 EELEC  =       159.6519  EHBOND  =         0.0000  RESTRAINT  =         0.0000
 EKCMT  =         0.0000  VIRIAL  =         0.0000  VOLUME     =       522.2107
                                                    Density    =         0.0028
 ------------------------------------------------------------------------------
