-------------------------------------------------------
          Amber 18 PMEMD                              2018
          -------------------------------------------------------

  [-O]verwriting output

File Assignments:

 Here is the input file:

MD: step7.in
 &cntrl
   imin = 0, nstlim = 5000, dt = 0.001,
   ntx = 5, irest = 1, ig = -1,
   ntwx = 500, ntwv = 0, ioutfm = 0, ntxo = 1, ntpr = 50, ntwr = 500,
   iwrap = 0, nscm = 0,
   ntc = 2, ntf = 2, ntb = 2, cut = 8.0,
   ntt = 3, gamma_ln = 5, temp0 = 300, tempi = 300,
   ntp = 1, barostat = 2, pres0 = 1.0,
   ntr = 1, restraintmask = ":1-119&!@H=|:120", restraint_wt = 0.5,
 &end

Note: ig = -1. Setting random seed to   161218 based on wallclock time in
      microseconds.

--------------------------------------------------------------------------------
   1.  RESOURCE   USE:
--------------------------------------------------------------------------------

 getting new box info from bottom of inpcrd
 NATOM  =   14772 NTYPES =      18 NBONH =   13817 MBONA  =     963
 NTHETH =    2369 MTHETA =    1293 NPHIH =    4533 MPHIA  =    3267
 NHPARM =       0 NPARM  =       0 NNB   =   28105 NRES   =    4374
 NBONA  =     963 NTHETA =    1293 NPHIA =    3267 NUMBND =      51
 NUMANG =     105 NPTRA  =      44 NATYP =      35 NPHB   =       1
 IFBOX  =       2 NMXRS  =      26 IFCAP =       0 NEXTRA =       0
 NCOPY  =       0

     BOX TYPE: TRUNCATED OCTAHEDRON

--------------------------------------------------------------------------------
   2.  CONTROL  DATA  FOR  THE  RUN
--------------------------------------------------------------------------------

default_name

General flags:
     imin    =       0, nmropt  =       0

Nature and format of input:
     ntx     =       5, irest   =       1, ntrx    =       1

Nature and format of output:
     ntxo    =       1, ntpr    =      50, ntrx    =       1, ntwr    =     500
     iwrap   =       0, ntwx    =     500, ntwv    =       0, ntwe    =       0
     ioutfm  =       0, ntwprt  =       0, idecomp =       0, rbornstat=      0

Potential function:
     ntf     =       2, ntb     =       2, igb     =       0, nsnb    =      25
     ipol    =       0, gbsa    =       0, iesp    =       0
     dielc   =   1.00000, cut     =   8.00000, intdiel =   1.00000

Frozen or restrained atoms:
     ibelly  =       0, ntr     =       1
     restraint_wt =   0.50000

Molecular dynamics:
     nstlim  =      5000, nscm    =         0, nrespa  =         1
     t       =   0.00000, dt      =   0.00100, vlimit  =  -1.00000

Langevin dynamics temperature regulation:
     ig      =  161218
     temp0   = 300.00000, tempi   = 300.00000, gamma_ln=   5.00000

Pressure regulation:
     ntp     =       1
     pres0   =   1.00000, comp    =  44.60000, taup    =   1.00000
     Monte-Carlo Barostat:
     mcbarint  =     100

SHAKE:
     ntc     =       2, jfastw  =       0
     tol     =   0.00001

Ewald parameters:
     verbose =       0, ew_type =       0, nbflag  =       1, use_pme =       1
     vdwmeth =       1, eedmeth =       1, netfrc  =       1
     Box X =   58.649   Box Y =   58.649   Box Z =   58.649
     Alpha =  109.471   Beta  =  109.471   Gamma =  109.471
     NFFT1 =   64       NFFT2 =   64       NFFT3 =   64
     Cutoff=    8.000   Tol   =0.100E-04
     Ewald Coefficient =  0.34864
     Interpolation order =    4

    LOADING THE CONSTRAINED ATOMS AS GROUPS

   5.  REFERENCE ATOM COORDINATES

  default_name
     Mask :1-119&!@H=|:120; matches   969 atoms

--------------------------------------------------------------------------------
   3.  ATOMIC COORDINATES AND VELOCITIES
--------------------------------------------------------------------------------

default_name
 begin time read from input coords =     5.000 ps

 Number of triangulated 3-point waters found:     4253

     Sum of charges from parm topology file =   0.00000094
     Forcing neutrality...

--------------------------------------------------------------------------------
   4.  RESULTS
 NSTEP =       50   TIME(PS) =       5.050  TEMP(K) =   303.90  PRESS =     0.0
 Etot   =    -33035.7330  EKtot   =      9209.3252  EPtot      =    -42245.0582
 BOND   =       345.6237  ANGLE   =      1082.6169  DIHED      =      1367.1336
 1-4 NB =       442.8834  1-4 EEL =      6164.0634  VDWAALS    =      4867.8428
 EELEC  =    -57822.2536  EHBOND  =         0.0000  RESTRAINT  =      1307.0315
 EAMBER (non-restraint)  =    -43552.0898
 EKCMT  =         0.0000  VIRIAL  =         0.0000  VOLUME     =    155294.4464
                                                    Density    =         0.9667
 ------------------------------------------------------------------------------

      A V E R A G E S   O V E R     100 S T E P S

 NSTEP =     5000   TIME(PS) =      10.000  TEMP(K) =   301.15  PRESS =     0.0
 Etot   =    -34473.2711  EKtot   =      9125.8693  EPtot      =    -43599.1404
 BOND   =       346.1002  ANGLE   =      1041.8087  DIHED      =      1365.4728
 1-4 NB =       445.9926  1-4 EEL =      6171.9352  VDWAALS    =      4788.9848
 EELEC  =    -57882.5207  EHBOND  =         0.0000  RESTRAINT  =       123.0860
 EAMBER (non-restraint)  =    -43722.2264
 EKCMT  =         0.0000  VIRIAL  =         0.0000  VOLUME     =    152764.7778
                                                    Density    =         0.9828
 ------------------------------------------------------------------------------

      R M S  F L U C T U A T I O N S

 NSTEP =     5000   TIME(PS) =      10.000  TEMP(K) =     2.86  PRESS =     0.0
 Etot   =       374.2827  EKtot   =        86.7075  EPtot      =       324.3105
 BOND   =        14.1449  ANGLE   =        20.8045  DIHED      =        12.6386
 1-4 NB =         8.2679  1-4 EEL =        22.0706  VDWAALS    =       119.2173
 EELEC  =       274.6174  EHBOND  =         0.0000  RESTRAINT  =       198.9040
 EAMBER (non-restraint)  =       125.4065
 EKCMT  =         0.0000  VIRIAL  =         0.0000  VOLUME     =      1695.8359
                                                    Density    =         0.0110
 ------------------------------------------------------------------------------
