-------------------------------------------------------
          Amber 18 PMEMD                              2018
          -------------------------------------------------------

  [-O]verwriting output

File Assignments:

 Here is the input file:

MD: step8.in
 &cntrl
   imin = 0, nstlim = 10000, dt = 0.001,
   ntx = 5, irest = 1, ig = -1,
   ntwx = 500, ntwv = 0, ioutfm = 0, ntxo = 1, ntpr = 50, ntwr = 500,
   iwrap = 0, nscm = 0,
   ntc = 2, ntf = 2, ntb = 2, cut = 8.0,
   ntt = 3, gamma_ln = 5, temp0 = 300, tempi = 300,
   ntp = 1, barostat = 2, pres0 = 1.0,
   ntr = 1, restraintmask = ":1-119@H,N,CA,HA,C,O|:120", restraint_wt = 0.5,
 &end

Note: ig = -1. Setting random seed to     6053 based on wallclock time in
      microseconds.

--------------------------------------------------------------------------------
   1.  RESOURCE   USE:
--------------------------------------------------------------------------------

 getting new box info from bottom of inpcrd
 NATOM  =   14772 NTYPES =      18 NBONH =   13817 MBONA  =     963
 NTHETH =    2369 MTHETA =    1293 NPHIH =    4533 MPHIA  =    3267
 NHPARM =       0 NPARM  =       0 NNB   =   28105 NRES   =    4374
 NBONA  =     963 NTHETA =    1293 NPHIA =    3267 NUMBND =      51
 NUMANG =     105 NPTRA  =      44 NATYP =      35 NPHB   =       1
 IFBOX  =       2 NMXRS  =      26 IFCAP =       0 NEXTRA =       0
 NCOPY  =       0

     BOX TYPE: TRUNCATED OCTAHEDRON

--------------------------------------------------------------------------------
   2.  CONTROL  DATA  FOR  THE  RUN
--------------------------------------------------------------------------------

default_name

General flags:
     imin    =       0, nmropt  =       0

Nature and format of input:
     ntx     =       5, irest   =       1, ntrx    =       1

Nature and format of output:
     ntxo    =       1, ntpr    =      50, ntrx    =       1, ntwr    =     500
     iwrap   =       0, ntwx    =     500, ntwv    =       0, ntwe    =       0
     ioutfm  =       0, ntwprt  =       0, idecomp =       0, rbornstat=      0

Potential function:
     ntf     =       2, ntb     =       2, igb     =       0, nsnb    =      25
     ipol    =       0, gbsa    =       0, iesp    =       0
     dielc   =   1.00000, cut     =   8.00000, intdiel =   1.00000

Frozen or restrained atoms:
     ibelly  =       0, ntr     =       1
     restraint_wt =   0.50000

Molecular dynamics:
     nstlim  =     10000, nscm    =         0, nrespa  =         1
     t       =   0.00000, dt      =   0.00100, vlimit  =  -1.00000

Langevin dynamics temperature regulation:
     ig      =    6053
     temp0   = 300.00000, tempi   = 300.00000, gamma_ln=   5.00000

Pressure regulation:
     ntp     =       1
     pres0   =   1.00000, comp    =  44.60000, taup    =   1.00000
     Monte-Carlo Barostat:
     mcbarint  =     100

SHAKE:
     ntc     =       2, jfastw  =       0
     tol     =   0.00001

Ewald parameters:
     verbose =       0, ew_type =       0, nbflag  =       1, use_pme =       1
     vdwmeth =       1, eedmeth =       1, netfrc  =       1
     Box X =   58.000   Box Y =   58.000   Box Z =   58.000
     Alpha =  109.471   Beta  =  109.471   Gamma =  109.471
     NFFT1 =   64       NFFT2 =   64       NFFT3 =   64
     Cutoff=    8.000   Tol   =0.100E-04
     Ewald Coefficient =  0.34864
     Interpolation order =    4

    LOADING THE CONSTRAINED ATOMS AS GROUPS

   5.  REFERENCE ATOM COORDINATES

  default_name
     Mask :1-119@H,N,CA,HA,C,O|:120; matches   734 atoms

--------------------------------------------------------------------------------
   3.  ATOMIC COORDINATES AND VELOCITIES
--------------------------------------------------------------------------------

default_name
 begin time read from input coords =    10.000 ps

 Number of triangulated 3-point waters found:     4253

     Sum of charges from parm topology file =   0.00000094
     Forcing neutrality...

--------------------------------------------------------------------------------
   4.  RESULTS
 NSTEP =       50   TIME(PS) =      10.050  TEMP(K) =   296.94  PRESS =     0.0
 Etot   =    -34860.4117  EKtot   =      8998.4590  EPtot      =    -43858.8707
 BOND   =       377.9915  ANGLE   =      1007.0317  DIHED      =      1363.7850
 1-4 NB =       449.2929  1-4 EEL =      6154.6809  VDWAALS    =      4837.0452
 EELEC  =    -58189.2529  EHBOND  =         0.0000  RESTRAINT  =       140.5550
 EAMBER (non-restraint)  =    -43999.4257
 EKCMT  =         0.0000  VIRIAL  =         0.0000  VOLUME     =    150194.2335
                                                    Density    =         0.9995
 ------------------------------------------------------------------------------

      A V E R A G E S   O V E R     200 S T E P S

 NSTEP =    10000   TIME(PS) =      20.000  TEMP(K) =   300.24  PRESS =     0.0
 Etot   =    -35018.5588  EKtot   =      9098.3146  EPtot      =    -44116.8734
 BOND   =       345.5094  ANGLE   =      1044.5497  DIHED      =      1368.6839
 1-4 NB =       448.7154  1-4 EEL =      6172.6503  VDWAALS    =      4908.6224
 EELEC  =    -58447.0043  EHBOND  =         0.0000  RESTRAINT  =        41.3997
 EAMBER (non-restraint)  =    -44158.2732
 EKCMT  =         0.0000  VIRIAL  =         0.0000  VOLUME     =    146802.8844
                                                    Density    =         1.0227
 ------------------------------------------------------------------------------

      R M S  F L U C T U A T I O N S

 NSTEP =    10000   TIME(PS) =      20.000  TEMP(K) =     2.32  PRESS =     0.0
 Etot   =       165.2403  EKtot   =        70.1550  EPtot      =       142.4090
 BOND   =        14.8128  ANGLE   =        22.5821  DIHED      =        12.0920
 1-4 NB =         8.6943  1-4 EEL =        20.9755  VDWAALS    =       113.7300
 EELEC  =       211.2096  EHBOND  =         0.0000  RESTRAINT  =        12.4546
 EAMBER (non-restraint)  =       129.9544
 EKCMT  =         0.0000  VIRIAL  =         0.0000  VOLUME     =      1512.0121
                                                    Density    =         0.0105
 ------------------------------------------------------------------------------
