-------------------------------------------------------
          Amber 18 PMEMD                              2018
          -------------------------------------------------------

  [-O]verwriting output

File Assignments:

 Here is the input file:

MD: step6.in
 &cntrl
   imin = 0, nstlim = 5000, dt = 0.001,
   ntx = 1, irest = 0, ig = -1,
   ntwx = 500, ntwv = 0, ioutfm = 0, ntxo = 1, ntpr = 50, ntwr = 500,
   iwrap = 0, nscm = 0,
   ntc = 2, ntf = 2, ntb = 2, cut = 8.0,
   ntt = 3, gamma_ln = 5, temp0 = 300, tempi = 300,
   ntp = 1, barostat = 2, pres0 = 1.0,
   ntr = 1, restraintmask = ":1-119&!@H=|:120", restraint_wt = 1.0,
 &end

Note: ig = -1. Setting random seed to   322589 based on wallclock time in
      microseconds.

--------------------------------------------------------------------------------
   1.  RESOURCE   USE:
--------------------------------------------------------------------------------

 getting new box info from bottom of inpcrd
 NATOM  =   14772 NTYPES =      18 NBONH =   13817 MBONA  =     963
 NTHETH =    2369 MTHETA =    1293 NPHIH =    4533 MPHIA  =    3267
 NHPARM =       0 NPARM  =       0 NNB   =   28105 NRES   =    4374
 NBONA  =     963 NTHETA =    1293 NPHIA =    3267 NUMBND =      51
 NUMANG =     105 NPTRA  =      44 NATYP =      35 NPHB   =       1
 IFBOX  =       2 NMXRS  =      26 IFCAP =       0 NEXTRA =       0
 NCOPY  =       0

     BOX TYPE: TRUNCATED OCTAHEDRON

--------------------------------------------------------------------------------
   2.  CONTROL  DATA  FOR  THE  RUN
--------------------------------------------------------------------------------

default_name

General flags:
     imin    =       0, nmropt  =       0

Nature and format of input:
     ntx     =       1, irest   =       0, ntrx    =       1

Nature and format of output:
     ntxo    =       1, ntpr    =      50, ntrx    =       1, ntwr    =     500
     iwrap   =       0, ntwx    =     500, ntwv    =       0, ntwe    =       0
     ioutfm  =       0, ntwprt  =       0, idecomp =       0, rbornstat=      0

Potential function:
     ntf     =       2, ntb     =       2, igb     =       0, nsnb    =      25
     ipol    =       0, gbsa    =       0, iesp    =       0
     dielc   =   1.00000, cut     =   8.00000, intdiel =   1.00000

Frozen or restrained atoms:
     ibelly  =       0, ntr     =       1
     restraint_wt =   1.00000

Molecular dynamics:
     nstlim  =      5000, nscm    =         0, nrespa  =         1
     t       =   0.00000, dt      =   0.00100, vlimit  =  -1.00000

Langevin dynamics temperature regulation:
     ig      =  322589
     temp0   = 300.00000, tempi   = 300.00000, gamma_ln=   5.00000

Pressure regulation:
     ntp     =       1
     pres0   =   1.00000, comp    =  44.60000, taup    =   1.00000
     Monte-Carlo Barostat:
     mcbarint  =     100

SHAKE:
     ntc     =       2, jfastw  =       0
     tol     =   0.00001

Ewald parameters:
     verbose =       0, ew_type =       0, nbflag  =       1, use_pme =       1
     vdwmeth =       1, eedmeth =       1, netfrc  =       1
     Box X =   60.677   Box Y =   60.677   Box Z =   60.677
     Alpha =  109.471   Beta  =  109.471   Gamma =  109.471
     NFFT1 =   64       NFFT2 =   64       NFFT3 =   64
     Cutoff=    8.000   Tol   =0.100E-04
     Ewald Coefficient =  0.34864
     Interpolation order =    4

    LOADING THE CONSTRAINED ATOMS AS GROUPS

   5.  REFERENCE ATOM COORDINATES

  default_name
     Mask :1-119&!@H=|:120; matches   969 atoms

--------------------------------------------------------------------------------
   3.  ATOMIC COORDINATES AND VELOCITIES
--------------------------------------------------------------------------------

default_name
 begin time read from input coords =     0.000 ps

 Number of triangulated 3-point waters found:     4253

     Sum of charges from parm topology file =   0.00000094
     Forcing neutrality...

--------------------------------------------------------------------------------
   4.  RESULTS
 NSTEP =        0   TIME(PS) =       0.000  TEMP(K) =   437.84  PRESS =     0.0
 Etot   =    -49006.2257  EKtot   =     13268.1937  EPtot      =    -62274.4194
 BOND   =        58.8794  ANGLE   =       295.5074  DIHED      =      1178.0075
 1-4 NB =       384.3489  1-4 EEL =      6175.2284  VDWAALS    =      8892.9099
 EELEC  =    -79259.3010  EHBOND  =         0.0000  RESTRAINT  =         0.0000
 EKCMT  =         0.0000  VIRIAL  =         0.0000  VOLUME     =    171966.8335
                                                    Density    =         0.8729
 ------------------------------------------------------------------------------

      A V E R A G E S   O V E R     100 S T E P S

 NSTEP =     5000   TIME(PS) =       5.000  TEMP(K) =   293.27  PRESS =     0.0
 Etot   =    -34543.9761  EKtot   =      8887.1090  EPtot      =    -43431.0851
 BOND   =       336.2198  ANGLE   =      1026.8404  DIHED      =      1360.1356
 1-4 NB =       441.5397  1-4 EEL =      6167.7050  VDWAALS    =      4938.4396
 EELEC  =    -57775.6582  EHBOND  =         0.0000  RESTRAINT  =        73.6930
 EAMBER (non-restraint)  =    -43504.7781
 EKCMT  =         0.0000  VIRIAL  =         0.0000  VOLUME     =    164353.8655
                                                    Density    =         0.9144
 ------------------------------------------------------------------------------

      R M S  F L U C T U A T I O N S

 NSTEP =     5000   TIME(PS) =       5.000  TEMP(K) =    18.92  PRESS =     0.0
 Etot   =      1553.6390  EKtot   =       573.4378  EPtot      =       995.9377
 BOND   =        24.3412  ANGLE   =        53.4267  DIHED      =        15.4393
 1-4 NB =         8.9910  1-4 EEL =        20.0817  VDWAALS    =       557.3383
 EELEC  =      1431.6470  EHBOND  =         0.0000  RESTRAINT  =        11.0433
 EAMBER (non-restraint)  =       984.8944
 EKCMT  =         0.0000  VIRIAL  =         0.0000  VOLUME     =      5350.2373
                                                    Density    =         0.0299
 ------------------------------------------------------------------------------
